<?xml version='1.0' encoding='UTF-8'?>
<routes>
    <vType id="car" accel="2.6" decel="4.5" sigma="0.5" length="5.0" maxSpeed="16.67" color="0.8,0.8,0.8" guiShape="passenger" speedFactor="normc(1.0,0.1,0.7,1.3)" />
    <vType id="taxi" accel="2.2" decel="4.0" sigma="0.7" length="5.0" maxSpeed="13.89" color="1,0.8,0" guiShape="passenger/sedan" speedFactor="normc(0.9,0.15,0.6,1.2)" />
    <vType id="trotro" accel="1.5" decel="3.5" sigma="0.9" length="8.0" maxSpeed="11.11" color="0,0,1" guiShape="bus" speedFactor="normc(0.85,0.2,0.5,1.4)" />
    <vType id="truck" accel="1.0" decel="3.0" sigma="0.3" length="12.0" maxSpeed="11.11" color="0.5,0.5,0.5" guiShape="truck" speedFactor="normc(0.8,0.05,0.7,0.9)" />
    <vType id="aggressive" accel="4.0" decel="6.0" sigma="0.8" length="5.0" maxSpeed="22.22" color="1,0,0" guiShape="passenger" speedFactor="normc(1.5,0.2,1.2,2.0)" />
    <vType id="motorbike" accel="3.5" decel="5.0" sigma="0.7" length="2.5" maxSpeed="19.44" color="0.8,0.2,0.8" guiShape="motorcycle" speedFactor="normc(1.1,0.15,0.8,1.5)" />
    <vehicle id="veh_0" depart="0.00" type="trotro">
        <route edges="29969550#0 29969550#1 29969550#2 29969550#3 -310846937#4 -310846937#3 -310846937#2 -310846937#1 -310846937#0 -12216655#2 191211723 -13203622#0 11288268 510510829 510510828 11283984 510510834 510510833 13203970 -11283982#2 -11283982#1 -11283982#0 620999045 -514484057 637241777 173622383#1 13868641 1436994484 508821510 11284946#1 490999465 13206002#0 13206002#1 13206002#2 13206002#4 13206002#5 516370321 511032943#0 511032943#1 511032944 515030742 515030739 515472124#0 515472124#1 515974986 511032945#0 510460769 515472123 517114130 447785940 517110485 4797200#0 4797200#1 4797200#2 4797200#3 -260838008#3 -111440931#2" />
    </vehicle>
    <vehicle id="veh_1" depart="2.50" type="car">
        <route edges="-4816378#0 -4790611#0 510252766 510252765 4816379#0 4816379#1 515030737#0 515030737#1 515043099 105203473 515974986 511032945#0 510460769 105203483 510460768 515079206 447785937 516247952 518607168 526411227 -105203462#6 -105203462#5 -105203462#4 -111544997#3 -273312642#1 -273312642#0 -391750856" />
    </vehicle>
    <vehicle id="veh_2" depart="5.00" type="car">
        <route edges="447787434#0 447787434#1 511032947 -515544433#2 -515544433#1 -515544433#0 510252767 515030733 515063431 4790592#0 4790592#1 -34572192#3 -34572192#2 -34572192#1 -34572192#0 515043101 4797192 637199022 112243448 173169640 444487568#0 444487568#1 115793426#0 115793426#1 893358165#2 4845632 35331584#0" />
    </vehicle>
    <vehicle id="veh_3" depart="7.50" type="car">
        <route edges="515143628 515142034#0 515142034#1 -513676641 -515402758#2 -515402758#1 -515402758#0 661298053 515402757 13500384 13500335 514847988 511734758 11665989 514775873 13501949 515074340 660440726 517128644 511751485 511751484 511751481 517128643 514279591 250222911#0 250222911#1 511734755 25546054#0 12219833#0 514279587 -11163273#7 -11163273#6 -11163273#5 -11163273#4 -11163273#3 11163580#0 11163580#1 11163580#2 -13203622#1 -191211723 12216655#2 310846937#0 310846937#1 310846937#2 310846937#3 310846937#4 310846937#5 310846937#6 310846937#7 515927649#0 12217575#0 -12217575#0" />
    </vehicle>
    <vehicle id="veh_4" depart="10.00" type="truck">
        <route edges="11159359#0 -365646869#1 -365646869#0 -11159358#0 -448564837 -240260615 -11164589#1 -11164589#0 -514454848#0 11523881 510510822 510510821 510510827 11524726 510510826 11524813#0 11524813#2 11524813#3 11524813#4 514279588#0 514279588#1 514512215#0 510787280 12219585#0 510787279 510787279-AddedOffRampEdge 511790083 510787278 511032938 640240000#0 640240000#1 -29969183#1 -29969183#0 -514981275#1 -514981275#0 447782582 511751477 511751476 511751475 511751474 31090886 -302868585#2 -302868585#1 -302868585#0 425718121 515074337 381731519#0 381731519#1 381731519#2 381731519#3 381731519#4 29661176 334385510 948039883#1 391750845#0 391750845#1 391750845#2 391750845#3 391750845#4 527120003 511751470 511770538#0 511770538#1 111544997#0 111544997#1 -111544997#1" />
    </vehicle>
    <vehicle id="veh_5" depart="12.50" type="trotro">
        <route edges="-381101647#1 -381101647#0 -12217015#0 12217015#0" />
    </vehicle>
    <vehicle id="veh_6" depart="15.00" type="aggressive">
        <route edges="-111544984#1 -111545001 105203462#5 105203462#6 -526411227 -105203486 -516247952 105203485 517114131 510460766 515079207#0 515079207#1 515043097 516366362#0 516366362#1 515043098#0 515043098#1 521318793 511032940#0 511032940#1 511032941#0 511032941#1 511032941#2 511032941#3 511032941#4 490999466 13071648#0 13071648#1 510510838 4790626 510510837#0 637237632#1 514484057 661298056 620999046 11283982#0 11283982#1 11283982#2 13203928 510510831 13203687 13203622#0 -191211723 12216655#2 310846937#0 310846937#1 310846937#2 310846937#3 310846937#4 -29969550#3 -316792804 -327510677" />
    </vehicle>
    <vehicle id="veh_7" depart="17.50" type="car">
        <route edges="310846937#1 -310846937#1 -310846937#0 -11166852#1 -11166852#0 -240260608#1 -240260608#0 -240260609 -11166825 13203622#4 13203622#5 11161257 510510826 11524813#0 11524813#2 11524813#3 11524813#4 514279588#0 514279588#1 11153564#0 11153564#2 511721299 511721305 511721304 1301935312 511721303 11152422 12220107#0 12220107#1 12220107#2 12220107#4 12220107#5 514290542 513672317#0 513672317#1 513672317#2 515402759 513672313#0 513672313#1 513672313#2 5030569 525596261 514290536 318612422 1067222414 431382226 1059058662 515459440#1 318612418#0 -13686500#1 -13686500#0 13685264#2" />
    </vehicle>
    <vehicle id="veh_8" depart="20.00" type="taxi">
        <route edges="-381731519#4 -381731519#3 -381731519#2 -381731519#1 -381731519#0 -515074337 -381731552 302868585#0 302868585#1 302868585#2 511751479 447782588 514981275#0 514981275#1 29969183#0 29969183#1 514836528 511751480#0 511751480#1 517128643 11783553#0 754117423 11783730 172917697#1 112738214#1 112738214#2 112738214#3 513672306 447782058 5030569 525596261 514290536 514290535 511751513 172917698" />
    </vehicle>
    <vehicle id="veh_9" depart="22.50" type="car">
        <route edges="510787283#1 645131405 637909215#0 637909215#1 510787284#2 510787284#3 11153080 511721304 1301935312 511721303 511721302 511721301 11160919#0 11160919#2 12219833#0 514279587 -11163273#7 -11163273#6 -11163273#5 -11163273#4 -13868550 -11163449#3 -103840711#1 -103840711#0" />
    </vehicle>
    <vehicle id="veh_10" depart="25.00" type="car">
        <route edges="510503533#1 510503533#2 518078606 512650434#0 512650434#1 514429104#0 514429104#1 13785770#0 13785770#1 13785770#2 13785770#3 13785770#4 513672308#0 513672308#1 513672308#2 513672308#3 513672308#4 523043642#0 523043642#1 515402757 13500384 13500335 514847988 511734758 11665989 514775873 893358161 638959667#1 511032936 638959669 1219373916 419689459#0 419689459#0-AddedOffRampEdge" />
    </vehicle>
    <vehicle id="veh_11" depart="27.50" type="taxi">
        <route edges="-524510160#1 -524510160#0 -524511625 -11154880#1 -11154880#0 -428712572 -428712573 -240260603 591033503#0 591033503#1 591033503#2 569762862#0 569762862#1 1396555231#0 1396555231#1 11153130 1094706998#1 1094706998#1-AddedOffRampEdge 515937830 -515927649#3 -298113134#3 -298113134#2 -298113134#1 -298113134#0 -298113135 -13868724#4 -13868724#3 -298113132 -240260608#6" />
    </vehicle>
    <vehicle id="veh_12" depart="30.00" type="car">
        <route edges="626706998 511032942#1 516370320 363525828 510252759 35090388 515544432#0 515544432#2 4790611#0 4790611#1 4790611#2 4790611#3 4790611#4 510252767 515030733 515063431 4790597#0 4790597#1 4790597#2 4790597#3 4790597#4 -34571980#1 -34571980#0 -518607277" />
    </vehicle>
    <vehicle id="veh_13" depart="32.50" type="car">
        <route edges="-124461816 -388252437 -403277941 124461805#1 124461805#2 124461805#3 448193732 124461799 199375464#4 98504600#1 340533436#0 340533436#2 340533436#3 4797168#1 4797168#2 517110487#1 274779381#1 998674338#0 998674338#1 515079207#0 515079207#1 515043097 516366362#0 516366362#1 515043098#0 515043098#1 521318793 511032940#0 511032940#1 511032941#0 511032941#1 511032941#2 511032941#3 511032941#4 490999466 13071648#0 13071648#1 510510838 4790626 510510837#0 637237632#1 514484057 661298056 620999046 11283982#0 11283982#1 11283982#2 13203928 510510831 13203687 13203622#0 -191211723 12216655#2 310846937#0 310846937#1 310846937#2 310846937#3 310846937#4 310846937#5 310846937#6 310846937#7 515927649#0 515927649#1 -13070051#2 -13070051#1" />
    </vehicle>
    <vehicle id="veh_14" depart="35.00" type="trotro">
        <route edges="513672305 513672302 513672298 513672297 112738245 513676635 1067221279 1067221278 1067221274#0 1067221274#1 1067221273 513676636 172917696 515537584 112738241#0 112738241#1 112738241#2 112738241#3 112738241#4 112738241#5 112738241#6 112738241#7 511032942#0 511032942#1 511032943#0 511032943#1 511032944 515030742 515030739 515472124#0 515472124#1 515974986 511032945#0 510460769 515472123 517114130 447785940 517114125 510460763#0 510460763#1 510460763#2 448200173 4845630#1 -239972445#1 -239972445#0 -448712198#2 448712198#2 239972445#0" />
    </vehicle>
    <vehicle id="veh_15" depart="37.50" type="taxi">
        <route edges="510510837#0 637237632#1 514484057 661298056 517594756 11404763#2 11404763#3 447745518 1059317693 510787284#0 510787284#2 510787284#3 11153080 511721304 11657993 510787281 12219585#0 121770701 637028420 515537584 514911025 447780407" />
    </vehicle>
    <vehicle id="veh_16" depart="40.00" type="car">
        <route edges="13505864 172937723#2 638119481 112738241#1 112738241#2 637935217" />
    </vehicle>
    <vehicle id="veh_17" depart="42.50" type="trotro">
        <route edges="103189889#1 103189889#2 103189889#3 103189889#4 103189889#5 515063429 -515030733 -510252767 -1098286217 -4790611#3 -4790611#2 -4790611#1 -4790611#0 -515544432#2 -515544432#0 35090387 510252762 663874480 510252760 97060648#0 97060648#1 511032946 511032939#0 511032939#1 521318792 517622963 363525827#0 363525827#1 363525827#2 363525827#3 514911025 510252758 514981270 172917697#0 172917697#1 112738214#1 112738214#2 112738214#3 513672306 447782058 5030569 525596261 514290536 318612422 1067222414 431382226 -13685497#4 -13685497#3 -13685497#2 -13685497#1 -13685497#0 -13686358#5 13685772#0" />
    </vehicle>
    <vehicle id="veh_18" depart="45.00" type="aggressive">
        <route edges="511721312#3 -511721312#3 -511721312#2 -511721312#1 -511721312#0 -11171334#1 -11171334#0 -511721313#3 -511721313#2 -511721313#1 -511721313#0 -514290545 -448570468#1 -448570468#0 447738495 514290544#0 11661835 -447738486 5024940 286799034" />
    </vehicle>
    <vehicle id="veh_19" depart="47.50" type="car">
        <route edges="514290530 -448692882 125236585#0 125236585#1 125236585#2 12210585#1 12210585#2 1067222415 318612415#0 318612415#1 1067222412 514981257 526593446 1429856613" />
    </vehicle>
    <vehicle id="veh_20" depart="50.00" type="aggressive">
        <route edges="424279999#5 1429856611 125989143#1 125989143#2 125989143#3 666552969 525669426#0 525669426#1 12211664#4 12211664#5 677471423 514290539 5019321 522486262 -5024940 447738486 447738499#0 447738499#1 515937839 513998081 537046050 447738484 448570468#0 448570468#1 -11172812#4 -11172812#3 -11172812#2" />
    </vehicle>
    <vehicle id="veh_21" depart="52.50" type="trotro">
        <route edges="-427838927 35090390 510252760 97060648#0 97060648#1 511032946 511032939#0 511032939#1 511032940#0 511032940#1 511032941#0 511032941#1 511032941#2 511032941#3 511032941#4 600406680#0 600406680#1 13205994#2 1059317693 510787284#0 510787284#2 510787284#3 11153080 511721304 1301935312 511721303 511721302 511721301 11160919#0 11160919#2 12219833#0 12219833#2 12219833#4 12219833#5 12219833#6 511734753#0 511734753#1 515937835 627123718#0 627123718#1 11172215 -511721312#3 -511721312#2" />
    </vehicle>
    <vehicle id="veh_22" depart="55.00" type="car">
        <route edges="-11932211#2 11932211#2 514512217 514512222 511734751#0 511734751#1 511734751#2 511734751#3 514875710 1059059064 511721316 448570477 514290516#0 514290516#1 -846061867 -514464851#1 -514464851#0 -11520629#1 -11520629#0 447738489#0 447738489#1 514290544#0 11661835 -447738486 5024940 286799034 514290537 514290543 514290542 513672317#0 513672317#1 513672317#2 515402759 513672313#0 513672313#1 513672313#2 5030569 525596261 514290536 318612422 1067222414 431382226 1059058662 515459440#1 318612418#0 318612418#1 524604559 447736656#9 -13685330#1 -13685330#0 447728026#0 -447728026#0" />
    </vehicle>
    <vehicle id="veh_23" depart="57.50" type="car">
        <route edges="-13503064#0 673990648 673990646 -448677656#1 13078748 13503064#1 13503064#2 -1067221276 447781319 1067221273 513676636 172917696 515537584 112738241#0 112738241#1 112738241#2 112738241#3 112738241#4 112738241#5 112738241#6 112738241#7 511032942#0 511032942#1 511032943#0 511032943#1 511032944 515030742 515030739 515472124#0 515472124#1 515974986 511032945#0 510460769 515472123 517114130 447785940 517114125 510460763#0 510460763#1 510460763#2 448200173 4845630#1 4845630#2 4845630#3 4845630#4 4845630#5 4845630#6 -4845630#6" />
    </vehicle>
    <vehicle id="veh_24" depart="60.00" type="motorbike">
        <route edges="29969195#1 514981275#1 29969183#0 29969183#1 514836528 511751480#0 511751480#1 517128643 514279591 250222911#0 250222911#1 11160683#0 11160683#1 511721303 511721302 511721301 1301935311 511721299 11658036 511782585#0 517594761 447745520 -11404763#3 -11404763#2 -517594756 -661298056" />
    </vehicle>
    <vehicle id="veh_25" depart="62.50" type="car">
        <route edges="-909967148 909967148 13500581 13500335 514847988 448869630 1219373326 447496378 514761437-AddedOnRampEdge 514761437 517114133 25843888#0 25843888#1-AddedOnRampEdge 25843888#1 25843888#2 25843888#2-AddedOffRampEdge 25843888#3 510832949#0 510832949#1 510832958 522545252 524609964 514279593 -510994698 -511057173 29821196#0 29821196#1 29821196#2 511770535 -525627116 -511751471#1 -511751471#0 -516366363 -448575377#1 -448575377#0 -516241543#1 -516241543#0 -511751470 -515973338#2 -515973338#1 -515973338#0 -526411227 -105203486 -516247952 105203485 517114131 510460766 510460765 510460769 515472123 517114130 447785940 517110485 4797200#0 4797200#1 4797200#2 4797200#3 4797200#4 4797200#5 4797200#6 4797200#7 4797200#8 -517110491#2 4798844#0 4798844#1 -35330925#1 -35330925#0" />
    </vehicle>
    <vehicle id="veh_26" depart="65.00" type="car">
        <route edges="-4790634#2 4790634#2 340844844 340844847#0 -4816378#2 -4816378#1 -4816378#0 -4790611#0 510252766 510252765 4816379#0 4816379#1 515030737#0 515030737#1 515043099 105203473 515974986 511032945#0 510460769 105203483 510460768 515079206 447785937 516247952 524604564" />
    </vehicle>
    <vehicle id="veh_27" depart="67.50" type="car">
        <route edges="305107259#2 -305107259#2 -305107259#1 -305107259#0 511751494 448694120 -251982071 -251982072 122460011 251982071" />
    </vehicle>
    <vehicle id="veh_28" depart="70.00" type="aggressive">
        <route edges="-298113132 -240260608#6 -240260608#5 -240260608#4 -240260608#3 -240260608#2 -240260608#1 -240260608#0 -240260609 -11166825 -13203622#3 -13203622#1 -13203622#0 11288268 510510829 510510828 11283984 13204005 -13868650#2 -13868650#1 -13868650#0 -510510835 173622384#0 173622384#1 447778212" />
    </vehicle>
    <vehicle id="veh_29" depart="72.50" type="trotro">
        <route edges="-277792478#0 -515063426 447787433#0 511032948#0 511032948#1 510791928#0 510791931 419694823#0 419694823#1 419694823#2 510787289 510787291 510787290 120726242#0 120726242#1 490999464 600406680#0 600406680#1 13205994#2 1059317693 510787284#0 510787284#2 510787284#3 11153080 511721304 1301935312 511721303 511721302 511721301 11160919#0 11160919#2 12219833#0 12219833#2 12219833#4 12219833#5 12219833#6 511734753#0 511734753#1 515937835 627123718#0 627123718#1 1036518887#0 1036518887#1 1036518887#2 1036518887#3 1036518886" />
    </vehicle>
    <vehicle id="veh_30" depart="75.00" type="aggressive">
        <route edges="766817100 4816378#2 -340844847#0 340844846 121861788#0 121861788#1 340844849#0 340844849#1 419694820#0 419694820#1 514484056 447788349 -670348801 -173622371#1 -173622371#0 447746192#0 4790626 510510837#0 637237632#1 514484057 661298056 620999046 11283982#0 11283982#1 11283982#2 13203928 510510831 13203687 13203622#0 -191211723 12216655#2 310846937#0 310846937#1 310846937#2 310846937#3 310846937#4 -29969550#3 29969550#3" />
    </vehicle>
    <vehicle id="veh_31" depart="77.50" type="trotro">
        <route edges="13686219#1 -13685166 448870865 13785770#2 13685264#3 424280003#0 424280003#1 515459441 5019322#1 5019322#2 447728022 1067222413 318612424 172917692 513672302 513672298 513672297 112738245 513676635 1067221279 1067221278 1067221274#0 1067221274#1 1067221273 513676636 172917696 515537584 112738241#0 112738241#1 112738241#2 112738241#3 112738241#4 112738241#5 112738241#6 112738241#7 511032942#0 511032942#1 516370320 363525828 510252759 35090388 515544432#0 515544432#2 510252766 -172920768 -4816380 -515066962#1 -515066962#0 515066963#0 515066963#1 515066963#2 515066963#3 4797192 637199022 112243448 173169640 444487568#0 444487568#1 -637199021#0 -368212469#2 -368212469#1 368212469#1" />
    </vehicle>
    <vehicle id="veh_32" depart="80.00" type="taxi">
        <route edges="511790082#0 511790082#1 510239275 -510221861 -645429978 932750544 893358160 893358159 1436994423 448675927 419689460 421455251 638959667#0 638959667#1 638959668 1052824112 660440726 517128644 511751485 511751484 511751481 517128643 514279591 250222911#0 250222911#1 11160683#0 11160683#1 511721303 511721302 511721301 1301935311 511721299 11658036 511782585#0 517594761 135693013#0 135693013#2 600406678 517594753#1 5019317 4790617#0 4790617#1 4790617#2 510787287#0 510787287#1 510787287#2 510787286 120726241#0 120726241#1 120726241#2 418520464 419694820#1 -514484050 172920770 4790615#0" />
    </vehicle>
    <vehicle id="veh_33" depart="82.50" type="motorbike">
        <route edges="-431382243 -13685497#2 13685573#5 -13499977#0 12210585#0 12210585#1 12210585#2 1067222415 -515102854#2 -515102854#1 513676637#2 447728022 1067222413 318612424 172917692 513672302 513672298 513672297 112738245 513676635 1067221279 1067221278 1067221274#0 1067221274#1 1067221273 513676636 172917696 515537584 112738241#0 112738241#1 112738241#2 112738241#3 112738241#4 112738241#5 112738241#6 112738241#7 511032942#0 511032942#1 516370320 363525828 510252759 35090388 515544432#0 515544432#2 4790611#0 4790611#1 4790611#2 4790611#3 4790611#4 515544433#0 515544433#1 515544433#2 515063426 277792478#0 277792478#1 -426558830 -111557769" />
    </vehicle>
    <vehicle id="veh_34" depart="85.00" type="taxi">
        <route edges="-515043093#1 -515043093#0 -105204620 -381731515#1 -105204629#1 -105204629#0 -448575364 29661176 334385510 948039883#1 391750845#0 391750845#1 391750845#2 391750845#3 391750845#4 527120003 511751470 511770538#0 511770538#1 516263372 334385515 511751469#0 511751469#1 511751469#2 111544994#1 98504600#0 98504600#1 340533436#0 340533436#2 340533436#3 4797168#1 -4797168#1" />
    </vehicle>
    <vehicle id="veh_35" depart="87.50" type="trotro">
        <route edges="-35331584#1 -35331584#0 515871373#0 515871373#1 140841593 140841590 512177048 591037066 509004579 644580150 93944320 526002067 677444302 517110487#0 -4797168#2 -4797168#1 -340533436#3 -340533436#2 -340533436#0 -98504600#1 -98504600#0 111544994#2 199375467#0 -29821996#4 -199375498#2 -29969382 526411225#2 526411225#3" />
    </vehicle>
    <vehicle id="veh_36" depart="90.00" type="aggressive">
        <route edges="514911011 -514911013 -105204633 515030744 518607144 515043090 518607152 515043096 515043095 -515043094 -515043092" />
    </vehicle>
    <vehicle id="veh_37" depart="92.50" type="trotro">
        <route edges="318612425#1 125236585#2 12210585#1 125236586#0 125236586#1 511751510 448692882 165257026 514290534#0 514290534#1 515966701 305107261 511751497 511751494 448694120 -251982071 -251982072 517128644 511751485 511751484 511751483#0 511751483#1 640240000#0 640240000#1 -29969183#1 -29969183#0 -514981275#1 -514981275#0 447782582 511751477 511751476 511751475 511751474 31090886 -302868585#2 -302868585#1 -302868585#0 -302868583 105204646#0" />
    </vehicle>
    <vehicle id="veh_38" depart="95.00" type="aggressive">
        <route edges="517110494#0 -517110494#0 -517110493 -517110492 517110491#0 517110491#1 517110491#2 -4797200#8 -4797200#7 -4797200#6 -4797200#5 -4797200#4 -4797200#3 -4797200#2 -4797200#1 -4797200#0 -637730358 637730359 637730357 677444302 517110487#0 -4797168#2 -4797168#1 -340533436#3 -340533436#2 -340533436#0 -98504600#1 -98504600#0 -111544994#1 -671175623#2 -671175623#1 -671175623#0 112243428 29821855#5 403277940 112243434 448191204 515909394 447784722#0 447784722#2 512647404-AddedOnRampEdge 512647404 510994693 510994690 112243431 644969359 510832952 510224905#0 510224905#1 510224905#2 509869717 514761434 514761434-AddedOffRampEdge 510224904 510224904-AddedOffRampEdge 11666590" />
    </vehicle>
    <vehicle id="veh_39" depart="97.50" type="trotro">
        <route edges="-4790611#2 -4790611#1 -4790611#0 -515544432#2 -515544432#0 35090387 510252762 663874480 510252760 97060648#0 97060648#1 511032946 511032939#0 511032939#1 511032940#0 511032940#1 511032941#0 511032941#1 511032941#2 511032941#3 511032941#4 600406680#0 600406680#1 13205994#2 447745520 -11404763#3 -262033831#1 -262033831#0 -448578118" />
    </vehicle>
    <vehicle id="veh_40" depart="100.00" type="trotro">
        <route edges="13686500#6 523043640#0 523043640#1 523043640#2 661298053 515402757 13500384 13500335 514847988 448869630 645023451 13500464 -11664610 -510252755 -510252749 11664722 510221863 511790082#0 671191789#0 827104350 -422534606#0 -478139123" />
    </vehicle>
    <vehicle id="veh_41" depart="102.50" type="car">
        <route edges="155295973#1 155295974#1 155295974#2 510503533#1 510503533#2 13687399#0 13687399#1 447596314 518078605 286799035#0 1215416101 511751518 515102153 515102855 12211664#0 12211664#1 12211664#2 12211664#3 12211664#4 12211664#5 677471423 514290539 514290538 514290537 5019318 522486247#1 522486247#2 511721307 511721306 511782585#0 517594761 135693013#0 135693013#2 600406678 517594753#1 5019317 4790617#0 4790617#1 4790617#2 510787287#0 510787287#1 510787287#2 510787286 120726241#0 120726241#1 120726241#2 120726241#3 419694819 514484049 515063424#0 515063424#1 517128641 447787434#0 447787434#1 511032947 -515544433#2 515544433#2" />
    </vehicle>
    <vehicle id="veh_42" depart="105.00" type="car">
        <route edges="105550269#0 105550269#2 105550269#3 13206002#4 13206002#5 516370321 511032943#0 511032943#1 511032939#0 511032939#1 521318792 517622963 363525827#0 363525827#1 363525827#2 -425764019 637852208 -381731513 -518607153 518607152 515043096 515043095 381731515#0 -381731515#0" />
    </vehicle>
    <vehicle id="veh_43" depart="107.50" type="car">
        <route edges="98552049 511790086 316575722 511790085 511790084 511032948#0 511032948#1 510791928#0 510791931 419694823#0 419694823#1 419694823#2 510787289 510787291 510787290 120726242#0 120726242#1 490999464 600406680#0 600406680#1 13205994#2 1059317693 510787284#0 510787284#2 510787284#3 11153080 511721304 1301935312 511721303 511721302 511721301 11160919#0 11160919#2 12219833#0 12219833#2 12219833#4 12219833#5 12219833#6" />
    </vehicle>
    <vehicle id="veh_44" depart="110.00" type="car">
        <route edges="-123266666#1 -637852206#1 -637852206#0 -24385427 -448679078#2 13505864 172937723#2 172937725#1 514911025 447780407 -514911020 -514911022 -510252757 514981273 -514981275#1 -514981275#0 447782582 511751477 511751476 511751475 511751474 31090886 -302868585#2 -302868585#1 -302868585#0 -302868583 -29661376#0 -511751473 -510832943 -510832942 -518607151 -510994708#2 -510994708#1 -510994708#0 -511770535 -29821196#2 -29821196#1 -29821196#0 511057173 510994698 510994685 514290521 510994700#1 447784725 527120014 327510630 515701498 -112243434 -403277940 -112243436 -112243428" />
    </vehicle>
    <vehicle id="veh_45" depart="112.50" type="car">
        <route edges="-13685166 448870865 13785770#2 13685264#3 424280003#0 424280003#1 515459441 5019322#1 5019322#2 447728022 1067222413 318612424 447726889 524604561 659277042 447726890 515399470#1 514981229#1 514290540 172917700 514290539 514290538 514290537 5019318 522486247#1 522486247#2 511721307 11658655 511721301 11160919#0 11160919#2 12219833#0 12219833#2 12219833#4 12219833#5 12219833#6 515937836 511734754#0 510510824 510510823 510510822 510510821 510510827 11525233 -13203622#5 -13203622#4 11166825 240260609 240260608#0 240260608#1 240260608#2 240260608#3 240260608#4 240260608#5 240260608#6 240260608#7 13868724#3 13868724#4 298113135" />
    </vehicle>
    <vehicle id="veh_46" depart="115.00" type="car">
        <route edges="498864475#1 627168181 -11931717#1 11785327 121861789#0 121861789#1 -511734751#0 -514512222 -11525163#1 -11525163#0 -514454848#1 -514454848#0 11523881 510510822 11524775#0 11524775#1 1094699301#1 1094699301#2 11159359#0 11159359#1 11159359#2" />
    </vehicle>
    <vehicle id="veh_47" depart="117.50" type="car">
        <route edges="-1175817496 -103189880#0 103189889#1 103189889#2 103189889#3 103189889#4 103189889#5 515063429 -515030733 -510252767 -1098286217 -4790611#3 -4790611#2 -4790611#1 -4790611#0 -515544432#2 -515544432#0 35090387 510252762 663874480 510252760 97060648#0 97060648#1 511032946 511032939#0 1040319148 1040319147" />
    </vehicle>
    <vehicle id="veh_48" depart="120.00" type="trotro">
        <route edges="96639930 13206002#1 13206002#2 13206002#4 13206002#5" />
    </vehicle>
    <vehicle id="veh_49" depart="122.50" type="taxi">
        <route edges="637852206#0 -637852206#0 -24385427 -448679078#2 13505864 172937723#2 172937725#1 514911025 447780407 -514911020 -514911022 -510252757 514981273 -514981275#1 -514981275#0 447782582 511751477 511751476 511751475 511751474 31090886 -302868585#2 -302868585#1 -302868585#0 -302868583 -29661376#0 -511751473 -510832943 511057176 511062308 516247951 511062307#0 511062307#1 514290526 527119967 522545254 514290527#0 514290527#1" />
    </vehicle>
    <vehicle id="veh_50" depart="125.00" type="taxi">
        <route edges="-105203462#3 391750856 273312642#0 -112243420 -516263372 -511770538#1 308765604 511770536 516241543#1 448575377#0 448575377#1 516366363 511751471#0 511751471#1 525627116 -511770535 -29821196#2 -29821196#1 -29821196#0 511057173 510994698 510994685 112243431 644969359 510832952 510224905#0 510224905#1 510224905#2 509869717 514761434 514761434-AddedOffRampEdge 421455250 425718122#0 425718122#1-AddedOnRampEdge 425718122#1 511721298 513676649 515143628 515142034#0 515142034#1 447736656#0 447736656#1 447736656#2 447736656#3 447736656#4 447736656#5 447736656#6 447736656#7 447736656#8 447736656#9 524604555 524604553 1096979302 1439354537 515102159#0 515102159#1 447736657#0 447736657#1 11287593#0 -345632649#1 -345632649#0 447728024#0" />
    </vehicle>
    <vehicle id="veh_51" depart="127.50" type="car">
        <route edges="363525827#3 514911025 510252758 514981270 172917697#0 172917697#1 112738214#1 112738214#2 112738214#3 513672306 513672305 513672302 515142031 524604561 659277042 447726890 -514981268#1 -514981268#0 -13506539#2 -13506539#1 13506539#1" />
    </vehicle>
    <vehicle id="veh_52" depart="130.00" type="car">
        <route edges="-4790634#1 4790634#1 4790634#2 340844844 340844847#0 -4816378#2 -4816378#1 -4816378#0 -4790611#0 -515544432#2 -515544432#0 35090387 510252762 663874480 510252760 97060648#0 97060648#1 511032946 511032939#0 511032939#1 521318792 517622963 363525827#0 363525827#1 363525827#2 -425764019 637852208 -381731513 -518607153 -515043090 -518607144 -515030744 -526002066 -514981277 447782589 31090886 -302868585#2 -302868585#1 -302868585#0 -302868583 105204646#0 105204646#1 29969966#1 29969966#2 29969966#3 29969966#4" />
    </vehicle>
    <vehicle id="veh_53" depart="132.50" type="motorbike">
        <route edges="-13685443#3 13685443#3 -13686500#2 -13686500#1 524604557#1 524604557#2 424280003#1 515459441 5019322#1 5019322#2 447728022 1067222413 318612424 447726889 524604561 659277042 447726890 515399470#1 514981229#1 514290540 172917700 514290539 5019321 522486262 -5024940 447738486 447738499#0 447738499#1 515937839 513998081 537046050 447738484 448570468#0 448570468#1 514290545 511721313#0 511721313#1 511721313#2 511721313#3 11171334#0 11171334#1" />
    </vehicle>
    <vehicle id="veh_54" depart="135.00" type="trotro">
        <route edges="115793426#1 444487570#0 444487570#1 -444487568#1 -444487568#0 -173169640 -112243448 -637199022 -4797192 -515066963#3 -515066963#2 -515066963#1 -515066963#0 515066962#0 515066962#1 4816380 172920768 -510252766 -515544432#2 -515544432#0 35090387 510252762 663874480 510252760 97060648#0 97060648#1 511032946 511032939#0 511032939#1 511032940#0 511032940#1 511032941#0 511032941#1 511032941#2 511032941#3 511032941#4 490999466 13071648#0 13071648#1 510510838 4790626 510510837#0 637237632#1 514484057 661298056 620999046" />
    </vehicle>
    <vehicle id="veh_55" depart="137.50" type="trotro">
        <route edges="514875713#0 514875713#1 514454856#1 514454856#2 522486267 522486265#2 11521261 11155633#0 677471423 514290539 514290538 514290537 514290543 514290542 513672317#0 513672317#1 513672317#2 515402759 447782059 513672297 112738245 513676635 1067221279 1067221278 1067221274#0 1067221274#1 1067221273 513676636 172917696 515537584 112738241#0 112738241#1 112738241#2 112738241#3 112738241#4 112738241#5 112738241#6 112738241#7 511032942#0 511032942#1 516370320 363525828 510252759 35090388 515544432#0 515544432#2 4790611#0 4790611#1 4790611#2 4790611#3 4790611#4 510252767 515030733 515063431 4790597#0 -4790597#0" />
    </vehicle>
    <vehicle id="veh_56" depart="140.00" type="car">